<?xml version="1.0" encoding="UTF-8"?>

<vehicleDefinitions xmlns="http://www.matsim.org/files/dtd"
					xmlns:xsi="http://www.w3.org/2001/XMLSchema-instance"
					xsi:schemaLocation="http://www.matsim.org/files/dtd http://www.matsim.org/files/dtd/vehicleDefinitions_v1.0.xsd">
	<vehicleType id="car_average">
		<description>
			BEGIN_EMISSIONSPASSENGER_CAR;average;average;averageEND_EMISSIONS
		</description>
		<length meter="7.5"/>
		<width meter="1.0"/>

		<accessTime secondsPerPerson="1.0"/>
		<egressTime secondsPerPerson="1.0"/>
		<doorOperation mode="serial"/>
	</vehicleType>
	<vehicleType id="car_petrol">
		<description>
			BEGIN_EMISSIONSPASSENGER_CAR;petrol (4S);&lt;1,4L;PC-P-Euro-1END_EMISSIONS
		</description>
		<length meter="7.5"/>
		<width meter="1.0"/>

		<accessTime secondsPerPerson="1.0"/>
		<egressTime secondsPerPerson="1.0"/>
		<doorOperation mode="serial"/>
	</vehicleType>
	<vehicleType id="car_diesel">
		<description>
			BEGIN_EMISSIONSPASSENGER_CAR;diesel;&lt;1,4L;PC-D-Euro-3END_EMISSIONS
		</description>
		<length meter="7.5"/>
		<width meter="1.0"/>

		<accessTime secondsPerPerson="1.0"/>
		<egressTime secondsPerPerson="1.0"/>
		<doorOperation mode="serial"/>
	</vehicleType>
	<vehicleType id="truck">
		<description>
			BEGIN_EMISSIONSHEAVY_GOODS_VEHICLE;average;average;averageEND_EMISSIONS
		</description>
		<length meter="7.5"/>
		<width meter="1.0"/>

		<accessTime secondsPerPerson="1.0"/>
		<egressTime secondsPerPerson="1.0"/>
		<doorOperation mode="serial"/>
	</vehicleType>
	<vehicle id="Munich City-Augsburg City0" type="car_diesel"/>
	<vehicle id="Munich City-Augsburg City1" type="car_diesel"/>
	<vehicle id="Munich City-Augsburg City2" type="car_diesel"/>
	<vehicle id="Munich City-Augsburg City3" type="car_diesel"/>
	<vehicle id="Munich City-Augsburg City4" type="car_diesel"/>
	<vehicle id="Munich City-Augsburg City5" type="car_diesel"/>
	<vehicle id="Munich City-Augsburg City6" type="car_diesel"/>
	<vehicle id="Munich City-Augsburg City7" type="car_diesel"/>
	<vehicle id="Munich City-Augsburg City8" type="car_diesel"/>
	<vehicle id="Munich City-Augsburg City9" type="car_diesel"/>
	<vehicle id="Munich City-Augsburg City10" type="car_diesel"/>
	<vehicle id="Munich City-Augsburg City11" type="car_diesel"/>
	<vehicle id="Munich City-Augsburg City12" type="car_diesel"/>
	<vehicle id="Munich City-Augsburg City13" type="car_diesel"/>
	<vehicle id="Munich City-Augsburg City14" type="car_diesel"/>
	<vehicle id="Munich City-Augsburg City15" type="car_diesel"/>
	<vehicle id="Munich City-Augsburg City16" type="car_diesel"/>
	<vehicle id="Munich City-Augsburg City17" type="car_diesel"/>
	<vehicle id="Munich City-Augsburg City18" type="car_diesel"/>
	<vehicle id="Munich City-Augsburg City19" type="car_diesel"/>
	<vehicle id="Munich City-Augsburg City20" type="car_diesel"/>
	<vehicle id="Munich City-Dachau0" type="car_diesel"/>
	<vehicle id="Munich City-Dachau1" type="car_diesel"/>
	<vehicle id="Munich City-Dachau2" type="car_diesel"/>
	<vehicle id="Munich City-Dachau3" type="car_diesel"/>
	<vehicle id="Munich City-Dachau4" type="car_diesel"/>
	<vehicle id="Munich City-Dachau5" type="car_diesel"/>
	<vehicle id="Munich City-Dachau6" type="car_diesel"/>
	<vehicle id="Munich City-Dachau7" type="car_diesel"/>
	<vehicle id="Munich City-Dachau8" type="car_diesel"/>
	<vehicle id="Munich City-Dachau9" type="car_diesel"/>
	<vehicle id="Munich City-Dachau10" type="car_diesel"/>
	<vehicle id="Munich City-Dachau11" type="car_diesel"/>
	<vehicle id="Munich City-Dachau12" type="car_diesel"/>
	<vehicle id="Munich City-Dachau13" type="car_diesel"/>
	<vehicle id="Munich City-Dachau14" type="car_diesel"/>
	<vehicle id="Munich City-Dachau15" type="car_diesel"/>
	<vehicle id="Munich City-Dachau16" type="car_diesel"/>
	<vehicle id="Munich City-Dachau17" type="car_diesel"/>
	<vehicle id="Munich City-Dachau18" type="car_diesel"/>
	<vehicle id="Munich City-Dachau19" type="car_diesel"/>
	<vehicle id="Munich City-Dachau20" type="car_diesel"/>
	<vehicle id="Munich City-Dachau21" type="car_diesel"/>
	<vehicle id="Munich City-Dachau22" type="car_diesel"/>
	<vehicle id="Munich City-Dachau23" type="car_diesel"/>
	<vehicle id="Munich City-Dachau24" type="car_diesel"/>
	<vehicle id="Munich City-Dachau25" type="car_diesel"/>
	<vehicle id="Munich City-Dachau26" type="car_diesel"/>
	<vehicle id="Munich City-Dachau27" type="car_diesel"/>
	<vehicle id="Munich City-Dachau28" type="car_diesel"/>
	<vehicle id="Munich City-Dachau29" type="car_diesel"/>
	<vehicle id="Munich City-Dachau30" type="car_diesel"/>
	<vehicle id="Munich City-Dachau31" type="car_diesel"/>
	<vehicle id="Munich City-Dachau32" type="car_diesel"/>
	<vehicle id="Munich City-Dachau33" type="car_diesel"/>
	<vehicle id="Munich City-Dachau34" type="car_diesel"/>
	<vehicle id="Munich City-Dachau35" type="car_diesel"/>
	<vehicle id="Munich City-Dachau36" type="car_diesel"/>
	<vehicle id="Munich City-Dachau37" type="car_diesel"/>
	<vehicle id="Munich City-Dachau38" type="car_diesel"/>
	<vehicle id="Munich City-Dachau39" type="car_diesel"/>
	<vehicle id="Munich City-Dachau40" type="car_diesel"/>
	<vehicle id="Munich City-Dachau41" type="car_diesel"/>
	<vehicle id="Munich City-Dachau42" type="car_diesel"/>
	<vehicle id="Munich City-Dachau43" type="car_diesel"/>
	<vehicle id="Munich City-Dachau44" type="car_diesel"/>
	<vehicle id="Munich City-Dachau45" type="car_diesel"/>
	<vehicle id="Munich City-Dachau46" type="car_diesel"/>
	<vehicle id="Munich City-Dachau47" type="car_diesel"/>
	<vehicle id="Munich City-Dachau48" type="car_diesel"/>
	<vehicle id="Munich City-Dachau49" type="car_diesel"/>
	<vehicle id="Munich City-Dachau50" type="car_diesel"/>
	<vehicle id="Munich City-Dachau51" type="car_diesel"/>
	<vehicle id="Munich City-Dachau52" type="car_diesel"/>
	<vehicle id="Munich City-Dachau53" type="car_diesel"/>
	<vehicle id="Munich City-Dachau54" type="car_diesel"/>
	<vehicle id="Munich City-Ebersberg0" type="car_diesel"/>
	<vehicle id="Munich City-Ebersberg1" type="car_diesel"/>
	<vehicle id="Munich City-Ebersberg2" type="car_diesel"/>
	<vehicle id="Munich City-Ebersberg3" type="car_diesel"/>
	<vehicle id="Munich City-Ebersberg4" type="car_diesel"/>
	<vehicle id="Munich City-Ebersberg5" type="car_diesel"/>
	<vehicle id="Munich City-Ebersberg6" type="car_diesel"/>
	<vehicle id="Munich City-Ebersberg7" type="car_diesel"/>
	<vehicle id="Munich City-Ebersberg8" type="car_diesel"/>
	<vehicle id="Munich City-Ebersberg9" type="car_diesel"/>
	<vehicle id="Munich City-Ebersberg10" type="car_diesel"/>
	<vehicle id="Munich City-Ebersberg11" type="car_diesel"/>
	<vehicle id="Munich City-Ebersberg12" type="car_diesel"/>
	<vehicle id="Munich City-Ebersberg13" type="car_diesel"/>
	<vehicle id="Munich City-Ebersberg14" type="car_diesel"/>
	<vehicle id="Munich City-Ebersberg15" type="car_diesel"/>
	<vehicle id="Munich City-Ebersberg16" type="car_diesel"/>
	<vehicle id="Munich City-Ebersberg17" type="car_diesel"/>
	<vehicle id="Munich City-Ebersberg18" type="car_diesel"/>
	<vehicle id="Munich City-Ebersberg19" type="car_diesel"/>
	<vehicle id="Munich City-Ebersberg20" type="car_diesel"/>
	<vehicle id="Munich City-Ebersberg21" type="car_diesel"/>
	<vehicle id="Munich City-Ebersberg22" type="car_diesel"/>
	<vehicle id="Munich City-Ebersberg23" type="car_diesel"/>
	<vehicle id="Munich City-Ebersberg24" type="car_diesel"/>
	<vehicle id="Munich City-Ebersberg25" type="car_diesel"/>
	<vehicle id="Munich City-Ebersberg26" type="car_diesel"/>
	<vehicle id="Munich City-Ebersberg27" type="car_diesel"/>
	<vehicle id="Munich City-Ebersberg28" type="car_diesel"/>
	<vehicle id="Munich City-Ebersberg29" type="car_diesel"/>
	<vehicle id="Munich City-Ebersberg30" type="car_diesel"/>
	<vehicle id="Munich City-Ebersberg31" type="car_diesel"/>
	<vehicle id="Munich City-Ebersberg32" type="car_diesel"/>
	<vehicle id="Munich City-Ebersberg33" type="car_diesel"/>
	<vehicle id="Munich City-Ebersberg34" type="car_diesel"/>
	<vehicle id="Munich City-Ebersberg35" type="car_diesel"/>
	<vehicle id="Munich City-Ebersberg36" type="car_diesel"/>
	<vehicle id="Munich City-Ebersberg37" type="car_diesel"/>
	<vehicle id="Munich City-Ebersberg38" type="car_diesel"/>
	<vehicle id="Munich City-Ebersberg39" type="car_diesel"/>
	<vehicle id="Munich City-Ebersberg40" type="car_diesel"/>
	<vehicle id="Munich City-Ebersberg41" type="car_diesel"/>
	<vehicle id="Munich City-Ebersberg42" type="car_diesel"/>
	<vehicle id="Munich City-Ebersberg43" type="car_diesel"/>
	<vehicle id="Munich City-Ebersberg44" type="car_diesel"/>
	<vehicle id="Munich City-Ebersberg45" type="car_diesel"/>
	<vehicle id="Munich City-Ebersberg46" type="car_diesel"/>
	<vehicle id="Munich City-Ebersberg47" type="car_diesel"/>
	<vehicle id="Munich City-Ebersberg48" type="car_diesel"/>
	<vehicle id="Munich City-Ebersberg49" type="car_diesel"/>
	<vehicle id="Munich City-Ebersberg50" type="car_diesel"/>
	<vehicle id="Munich City-Ebersberg51" type="car_diesel"/>
	<vehicle id="Munich City-Ebersberg52" type="car_diesel"/>
	<vehicle id="Munich City-Ebersberg53" type="car_diesel"/>
	<vehicle id="Munich City-Ebersberg54" type="car_diesel"/>
	<vehicle id="Munich City-Ebersberg55" type="car_diesel"/>
	<vehicle id="Munich City-Ebersberg56" type="car_diesel"/>
	<vehicle id="Munich City-Ebersberg57" type="car_diesel"/>
	<vehicle id="Munich City-Erding0" type="car_diesel"/>
	<vehicle id="Munich City-Erding1" type="car_diesel"/>
	<vehicle id="Munich City-Erding2" type="car_diesel"/>
	<vehicle id="Munich City-Erding3" type="car_diesel"/>
	<vehicle id="Munich City-Erding4" type="car_diesel"/>
	<vehicle id="Munich City-Erding5" type="car_diesel"/>
	<vehicle id="Munich City-Erding6" type="car_diesel"/>
	<vehicle id="Munich City-Erding7" type="car_diesel"/>
	<vehicle id="Munich City-Erding8" type="car_diesel"/>
	<vehicle id="Munich City-Erding9" type="car_diesel"/>
	<vehicle id="Munich City-Erding10" type="car_diesel"/>
	<vehicle id="Munich City-Erding11" type="car_diesel"/>
	<vehicle id="Munich City-Erding12" type="car_diesel"/>
	<vehicle id="Munich City-Erding13" type="car_diesel"/>
	<vehicle id="Munich City-Erding14" type="car_diesel"/>
	<vehicle id="Munich City-Erding15" type="car_diesel"/>
	<vehicle id="Munich City-Erding16" type="car_diesel"/>
	<vehicle id="Munich City-Erding17" type="car_diesel"/>
	<vehicle id="Munich City-Erding18" type="car_diesel"/>
	<vehicle id="Munich City-Erding19" type="car_diesel"/>
	<vehicle id="Munich City-Erding20" type="car_diesel"/>
	<vehicle id="Munich City-Erding21" type="car_diesel"/>
	<vehicle id="Munich City-Erding22" type="car_diesel"/>
	<vehicle id="Munich City-Erding23" type="car_diesel"/>
	<vehicle id="Munich City-Erding24" type="car_diesel"/>
	<vehicle id="Munich City-Erding25" type="car_diesel"/>
	<vehicle id="Munich City-Erding26" type="car_diesel"/>
	<vehicle id="Munich City-Erding27" type="car_diesel"/>
	<vehicle id="Munich City-Erding28" type="car_diesel"/>
	<vehicle id="Munich City-Erding29" type="car_diesel"/>
	<vehicle id="Munich City-Erding30" type="car_diesel"/>
	<vehicle id="Munich City-Erding31" type="car_diesel"/>
	<vehicle id="Munich City-Erding32" type="car_diesel"/>
	<vehicle id="Munich City-Erding33" type="car_diesel"/>
	<vehicle id="Munich City-Freising0" type="car_diesel"/>
	<vehicle id="Munich City-Freising1" type="car_diesel"/>
	<vehicle id="Munich City-Freising2" type="car_diesel"/>
	<vehicle id="Munich City-Freising3" type="car_diesel"/>
	<vehicle id="Munich City-Freising4" type="car_diesel"/>
	<vehicle id="Munich City-Freising5" type="car_diesel"/>
	<vehicle id="Munich City-Freising6" type="car_diesel"/>
	<vehicle id="Munich City-Freising7" type="car_diesel"/>
	<vehicle id="Munich City-Freising8" type="car_diesel"/>
	<vehicle id="Munich City-Freising9" type="car_diesel"/>
	<vehicle id="Munich City-Freising10" type="car_diesel"/>
	<vehicle id="Munich City-Freising11" type="car_diesel"/>
	<vehicle id="Munich City-Freising12" type="car_diesel"/>
	<vehicle id="Munich City-Freising13" type="car_diesel"/>
	<vehicle id="Munich City-Freising14" type="car_diesel"/>
	<vehicle id="Munich City-Freising15" type="car_diesel"/>
	<vehicle id="Munich City-Freising16" type="car_diesel"/>
	<vehicle id="Munich City-Freising17" type="car_diesel"/>
	<vehicle id="Munich City-Freising18" type="car_diesel"/>
	<vehicle id="Munich City-Freising19" type="car_diesel"/>
	<vehicle id="Munich City-Freising20" type="car_diesel"/>
	<vehicle id="Munich City-Freising21" type="car_diesel"/>
	<vehicle id="Munich City-Freising22" type="car_diesel"/>
	<vehicle id="Munich City-Freising23" type="car_diesel"/>
	<vehicle id="Munich City-Freising24" type="car_diesel"/>
	<vehicle id="Munich City-Freising25" type="car_diesel"/>
	<vehicle id="Munich City-Freising26" type="car_diesel"/>
	<vehicle id="Munich City-Freising27" type="car_diesel"/>
	<vehicle id="Munich City-Freising28" type="car_diesel"/>
	<vehicle id="Munich City-Freising29" type="car_diesel"/>
	<vehicle id="Munich City-Freising30" type="car_diesel"/>
	<vehicle id="Munich City-Freising31" type="car_diesel"/>
	<vehicle id="Munich City-Freising32" type="car_diesel"/>
	<vehicle id="Munich City-Freising33" type="car_diesel"/>
	<vehicle id="Munich City-Freising34" type="car_diesel"/>
	<vehicle id="Munich City-Freising35" type="car_diesel"/>
	<vehicle id="Munich City-Freising36" type="car_diesel"/>
	<vehicle id="Munich City-Freising37" type="car_diesel"/>
	<vehicle id="Munich City-Freising38" type="car_diesel"/>
	<vehicle id="Munich City-Freising39" type="car_diesel"/>
	<vehicle id="Munich City-Freising40" type="car_diesel"/>
	<vehicle id="Munich City-Freising41" type="car_diesel"/>
	<vehicle id="Munich City-Freising42" type="car_diesel"/>
	<vehicle id="Munich City-Freising43" type="car_diesel"/>
	<vehicle id="Munich City-Freising44" type="car_diesel"/>
	<vehicle id="Munich City-Freising45" type="car_diesel"/>
	<vehicle id="Munich City-Freising46" type="car_diesel"/>
	<vehicle id="Munich City-Freising47" type="car_diesel"/>
	<vehicle id="Munich City-Freising48" type="car_diesel"/>
	<vehicle id="Munich City-Freising49" type="car_diesel"/>
	<vehicle id="Munich City-Freising50" type="car_diesel"/>
	<vehicle id="Munich City-Freising51" type="car_diesel"/>
	<vehicle id="Munich City-Freising52" type="car_diesel"/>
	<vehicle id="Munich City-Freising53" type="car_diesel"/>
	<vehicle id="Munich City-Freising54" type="car_diesel"/>
	<vehicle id="Munich City-Freising55" type="car_diesel"/>
	<vehicle id="Munich City-Freising56" type="car_diesel"/>
	<vehicle id="Munich City-Freising57" type="car_diesel"/>
	<vehicle id="Munich City-Freising58" type="car_diesel"/>
	<vehicle id="Munich City-Freising59" type="car_diesel"/>
	<vehicle id="Munich City-Freising60" type="car_diesel"/>
	<vehicle id="Munich City-Freising61" type="car_diesel"/>
	<vehicle id="Munich City-Freising62" type="car_diesel"/>
	<vehicle id="Munich City-Freising63" type="car_diesel"/>
	<vehicle id="Munich City-Freising64" type="car_diesel"/>
	<vehicle id="Munich City-Freising65" type="car_diesel"/>
	<vehicle id="Munich City-Freising66" type="car_diesel"/>
	<vehicle id="Munich City-Freising67" type="car_diesel"/>
	<vehicle id="Munich City-Freising68" type="car_diesel"/>
	<vehicle id="Munich City-Freising69" type="car_diesel"/>
	<vehicle id="Munich City-Freising70" type="car_diesel"/>
	<vehicle id="Munich City-Freising71" type="car_diesel"/>
	<vehicle id="Munich City-Freising72" type="car_diesel"/>
	<vehicle id="Munich City-Freising73" type="car_diesel"/>
	<vehicle id="Munich City-Freising74" type="car_diesel"/>
	<vehicle id="Munich City-Freising75" type="car_diesel"/>
	<vehicle id="Munich City-Freising76" type="car_diesel"/>
	<vehicle id="Munich City-Freising77" type="car_diesel"/>
	<vehicle id="Munich City-Freising78" type="car_diesel"/>
	<vehicle id="Munich City-Freising79" type="car_diesel"/>
	<vehicle id="Munich City-Freising80" type="car_diesel"/>
	<vehicle id="Munich City-Freising81" type="car_diesel"/>
	<vehicle id="Munich City-Freising82" type="car_diesel"/>
	<vehicle id="Munich City-Freising83" type="car_diesel"/>
	<vehicle id="Munich City-Freising84" type="car_diesel"/>
	<vehicle id="Munich City-Freising85" type="car_diesel"/>
	<vehicle id="Munich City-Freising86" type="car_diesel"/>
	<vehicle id="Munich City-Freising87" type="car_diesel"/>
	<vehicle id="Munich City-Freising88" type="car_diesel"/>
	<vehicle id="Munich City-Freising89" type="car_diesel"/>
	<vehicle id="Munich City-Freising90" type="car_diesel"/>
	<vehicle id="Munich City-Freising91" type="car_diesel"/>
	<vehicle id="Munich City-Freising92" type="car_diesel"/>
	<vehicle id="Munich City-Freising93" type="car_diesel"/>
	<vehicle id="Munich City-Freising94" type="car_diesel"/>
	<vehicle id="Munich City-Freising95" type="car_diesel"/>
	<vehicle id="Munich City-Freising96" type="car_diesel"/>
	<vehicle id="Munich City-Freising97" type="car_diesel"/>
	<vehicle id="Munich City-Freising98" type="car_diesel"/>
	<vehicle id="Munich City-Freising99" type="car_diesel"/>
	<vehicle id="Munich City-Fuerstenfeldbruck0" type="car_diesel"/>
	<vehicle id="Munich City-Fuerstenfeldbruck1" type="car_diesel"/>
	<vehicle id="Munich City-Fuerstenfeldbruck2" type="car_diesel"/>
	<vehicle id="Munich City-Fuerstenfeldbruck3" type="car_diesel"/>
	<vehicle id="Munich City-Fuerstenfeldbruck4" type="car_diesel"/>
	<vehicle id="Munich City-Fuerstenfeldbruck5" type="car_diesel"/>
	<vehicle id="Munich City-Fuerstenfeldbruck6" type="car_diesel"/>
	<vehicle id="Munich City-Fuerstenfeldbruck7" type="car_diesel"/>
	<vehicle id="Munich City-Fuerstenfeldbruck8" type="car_diesel"/>
	<vehicle id="Munich City-Fuerstenfeldbruck9" type="car_diesel"/>
	<vehicle id="Munich City-Fuerstenfeldbruck10" type="car_diesel"/>
	<vehicle id="Munich City-Fuerstenfeldbruck11" type="car_diesel"/>
	<vehicle id="Munich City-Fuerstenfeldbruck12" type="car_diesel"/>
	<vehicle id="Munich City-Fuerstenfeldbruck13" type="car_diesel"/>
	<vehicle id="Munich City-Fuerstenfeldbruck14" type="car_diesel"/>
	<vehicle id="Munich City-Fuerstenfeldbruck15" type="car_diesel"/>
	<vehicle id="Munich City-Fuerstenfeldbruck16" type="car_diesel"/>
	<vehicle id="Munich City-Fuerstenfeldbruck17" type="car_diesel"/>
	<vehicle id="Munich City-Fuerstenfeldbruck18" type="car_diesel"/>
	<vehicle id="Munich City-Fuerstenfeldbruck19" type="car_diesel"/>
	<vehicle id="Munich City-Fuerstenfeldbruck20" type="car_diesel"/>
	<vehicle id="Munich City-Fuerstenfeldbruck21" type="car_diesel"/>
	<vehicle id="Munich City-Fuerstenfeldbruck22" type="car_diesel"/>
	<vehicle id="Munich City-Fuerstenfeldbruck23" type="car_diesel"/>
	<vehicle id="Munich City-Fuerstenfeldbruck24" type="car_diesel"/>
	<vehicle id="Munich City-Fuerstenfeldbruck25" type="car_diesel"/>
	<vehicle id="Munich City-Fuerstenfeldbruck26" type="car_diesel"/>
	<vehicle id="Munich City-Fuerstenfeldbruck27" type="car_diesel"/>
	<vehicle id="Munich City-Fuerstenfeldbruck28" type="car_diesel"/>
	<vehicle id="Munich City-Fuerstenfeldbruck29" type="car_diesel"/>
	<vehicle id="Munich City-Fuerstenfeldbruck30" type="car_diesel"/>
	<vehicle id="Munich City-Fuerstenfeldbruck31" type="car_diesel"/>
	<vehicle id="Munich City-Fuerstenfeldbruck32" type="car_diesel"/>
	<vehicle id="Munich City-Fuerstenfeldbruck33" type="car_diesel"/>
	<vehicle id="Munich City-Fuerstenfeldbruck34" type="car_diesel"/>
	<vehicle id="Munich City-Fuerstenfeldbruck35" type="car_diesel"/>
	<vehicle id="Munich City-Fuerstenfeldbruck36" type="car_diesel"/>
	<vehicle id="Munich City-Fuerstenfeldbruck37" type="car_diesel"/>
	<vehicle id="Munich City-Fuerstenfeldbruck38" type="car_diesel"/>
	<vehicle id="Munich City-Fuerstenfeldbruck39" type="car_diesel"/>
	<vehicle id="Munich City-Fuerstenfeldbruck40" type="car_diesel"/>
	<vehicle id="Munich City-Fuerstenfeldbruck41" type="car_diesel"/>
	<vehicle id="Munich City-Fuerstenfeldbruck42" type="car_diesel"/>
	<vehicle id="Munich City-Fuerstenfeldbruck43" type="car_diesel"/>
	<vehicle id="Munich City-Fuerstenfeldbruck44" type="car_diesel"/>
	<vehicle id="Munich City-Fuerstenfeldbruck45" type="car_diesel"/>
	<vehicle id="Munich City-Fuerstenfeldbruck46" type="car_diesel"/>
	<vehicle id="Munich City-Fuerstenfeldbruck47" type="car_diesel"/>
	<vehicle id="Munich City-Fuerstenfeldbruck48" type="car_diesel"/>
	<vehicle id="Munich City-Fuerstenfeldbruck49" type="car_diesel"/>
	<vehicle id="Munich City-Fuerstenfeldbruck50" type="car_diesel"/>
	<vehicle id="Munich City-Fuerstenfeldbruck51" type="car_diesel"/>
	<vehicle id="Munich City-Fuerstenfeldbruck52" type="car_diesel"/>
	<vehicle id="Munich City-Fuerstenfeldbruck53" type="car_diesel"/>
	<vehicle id="Munich City-Fuerstenfeldbruck54" type="car_diesel"/>
	<vehicle id="Munich City-Fuerstenfeldbruck55" type="car_diesel"/>
	<vehicle id="Munich City-Fuerstenfeldbruck56" type="car_diesel"/>
	<vehicle id="Munich City-Fuerstenfeldbruck57" type="car_diesel"/>
	<vehicle id="Munich City-Fuerstenfeldbruck58" type="car_diesel"/>
	<vehicle id="Munich City-Fuerstenfeldbruck59" type="car_diesel"/>
	<vehicle id="Munich City-Fuerstenfeldbruck60" type="car_diesel"/>
	<vehicle id="Munich City-Fuerstenfeldbruck61" type="car_diesel"/>
	<vehicle id="Munich City-Fuerstenfeldbruck62" type="car_diesel"/>
	<vehicle id="Munich City-Fuerstenfeldbruck63" type="car_diesel"/>
	<vehicle id="Munich City-Fuerstenfeldbruck64" type="car_diesel"/>
	<vehicle id="Munich City-Fuerstenfeldbruck65" type="car_diesel"/>
	<vehicle id="Munich City-Fuerstenfeldbruck66" type="car_diesel"/>
	<vehicle id="Munich City-Fuerstenfeldbruck67" type="car_diesel"/>
	<vehicle id="Munich City-Fuerstenfeldbruck68" type="car_diesel"/>
	<vehicle id="Munich City-Fuerstenfeldbruck69" type="car_diesel"/>
	<vehicle id="Munich City-Fuerstenfeldbruck70" type="car_diesel"/>
	<vehicle id="Munich City-Ingolstadt City0" type="car_diesel"/>
	<vehicle id="Munich City-Ingolstadt City1" type="car_diesel"/>
	<vehicle id="Munich City-Ingolstadt City2" type="car_diesel"/>
	<vehicle id="Munich City-Ingolstadt City3" type="car_diesel"/>
	<vehicle id="Munich City-Ingolstadt City4" type="car_diesel"/>
	<vehicle id="Munich City-Ingolstadt City5" type="car_diesel"/>
	<vehicle id="Munich City-Ingolstadt City6" type="car_diesel"/>
	<vehicle id="Munich City-Ingolstadt City7" type="car_diesel"/>
	<vehicle id="Munich City-Ingolstadt City8" type="car_diesel"/>
	<vehicle id="Munich City-Ingolstadt City9" type="car_diesel"/>
	<vehicle id="Munich City-Ingolstadt City10" type="car_diesel"/>
	<vehicle id="Munich City-Ingolstadt City11" type="car_diesel"/>
	<vehicle id="Munich City-Ingolstadt City12" type="car_diesel"/>
	<vehicle id="Munich City-Ingolstadt City13" type="car_diesel"/>
	<vehicle id="Munich City-Ingolstadt City14" type="car_diesel"/>
	<vehicle id="Munich City-Ingolstadt City15" type="car_diesel"/>
	<vehicle id="Munich City-Ingolstadt City16" type="car_diesel"/>
	<vehicle id="Munich City-Ingolstadt City17" type="car_diesel"/>
	<vehicle id="Munich City-Munich County0" type="car_diesel"/>
	<vehicle id="Munich City-Munich County1" type="car_diesel"/>
	<vehicle id="Munich City-Munich County2" type="car_diesel"/>
	<vehicle id="Munich City-Munich County3" type="car_diesel"/>
	<vehicle id="Munich City-Munich County4" type="car_diesel"/>
	<vehicle id="Munich City-Munich County5" type="car_diesel"/>
	<vehicle id="Munich City-Munich County6" type="car_diesel"/>
	<vehicle id="Munich City-Munich County7" type="car_diesel"/>
	<vehicle id="Munich City-Munich County8" type="car_diesel"/>
	<vehicle id="Munich City-Munich County9" type="car_diesel"/>
	<vehicle id="Munich City-Munich County10" type="car_diesel"/>
	<vehicle id="Munich City-Munich County11" type="car_diesel"/>
	<vehicle id="Munich City-Munich County12" type="car_diesel"/>
	<vehicle id="Munich City-Munich County13" type="car_diesel"/>
	<vehicle id="Munich City-Munich County14" type="car_diesel"/>
	<vehicle id="Munich City-Munich County15" type="car_diesel"/>
	<vehicle id="Munich City-Munich County16" type="car_diesel"/>
	<vehicle id="Munich City-Munich County17" type="car_diesel"/>
	<vehicle id="Munich City-Munich County18" type="car_diesel"/>
	<vehicle id="Munich City-Munich County19" type="car_diesel"/>
	<vehicle id="Munich City-Munich County20" type="car_diesel"/>
	<vehicle id="Munich City-Munich County21" type="car_diesel"/>
	<vehicle id="Munich City-Munich County22" type="car_diesel"/>
	<vehicle id="Munich City-Munich County23" type="car_diesel"/>
	<vehicle id="Munich City-Munich County24" type="car_diesel"/>
	<vehicle id="Munich City-Munich County25" type="car_diesel"/>
	<vehicle id="Munich City-Munich County26" type="car_diesel"/>
	<vehicle id="Munich City-Munich County27" type="car_diesel"/>
	<vehicle id="Munich City-Munich County28" type="car_diesel"/>
	<vehicle id="Munich City-Munich County29" type="car_diesel"/>
	<vehicle id="Munich City-Munich County30" type="car_diesel"/>
	<vehicle id="Munich City-Munich County31" type="car_diesel"/>
	<vehicle id="Munich City-Munich County32" type="car_diesel"/>
	<vehicle id="Munich City-Munich County33" type="car_diesel"/>
	<vehicle id="Munich City-Munich County34" type="car_diesel"/>
	<vehicle id="Munich City-Munich County35" type="car_diesel"/>
	<vehicle id="Munich City-Munich County36" type="car_diesel"/>
	<vehicle id="Munich City-Munich County37" type="car_diesel"/>
	<vehicle id="Munich City-Munich County38" type="car_diesel"/>
	<vehicle id="Munich City-Munich County39" type="car_diesel"/>
	<vehicle id="Munich City-Munich County40" type="car_diesel"/>
	<vehicle id="Munich City-Munich County41" type="car_diesel"/>
	<vehicle id="Munich City-Munich County42" type="car_diesel"/>
	<vehicle id="Munich City-Munich County43" type="car_diesel"/>
	<vehicle id="Munich City-Munich County44" type="car_diesel"/>
	<vehicle id="Munich City-Munich County45" type="car_diesel"/>
	<vehicle id="Munich City-Munich County46" type="car_diesel"/>
	<vehicle id="Munich City-Munich County47" type="car_diesel"/>
	<vehicle id="Munich City-Munich County48" type="car_diesel"/>
	<vehicle id="Munich City-Munich County49" type="car_diesel"/>
	<vehicle id="Munich City-Munich County50" type="car_diesel"/>
	<vehicle id="Munich City-Munich County51" type="car_diesel"/>
	<vehicle id="Munich City-Munich County52" type="car_diesel"/>
	<vehicle id="Munich City-Munich County53" type="car_diesel"/>
	<vehicle id="Munich City-Munich County54" type="car_diesel"/>
	<vehicle id="Munich City-Munich County55" type="car_diesel"/>
	<vehicle id="Munich City-Munich County56" type="car_diesel"/>
	<vehicle id="Munich City-Munich County57" type="car_diesel"/>
	<vehicle id="Munich City-Munich County58" type="car_diesel"/>
	<vehicle id="Munich City-Munich County59" type="car_diesel"/>
	<vehicle id="Munich City-Munich County60" type="car_diesel"/>
	<vehicle id="Munich City-Munich County61" type="car_diesel"/>
	<vehicle id="Munich City-Munich County62" type="car_diesel"/>
	<vehicle id="Munich City-Munich County63" type="car_diesel"/>
	<vehicle id="Munich City-Munich County64" type="car_diesel"/>
	<vehicle id="Munich City-Munich County65" type="car_diesel"/>
	<vehicle id="Munich City-Munich County66" type="car_diesel"/>
	<vehicle id="Munich City-Munich County67" type="car_diesel"/>
	<vehicle id="Munich City-Munich County68" type="car_diesel"/>
	<vehicle id="Munich City-Munich County69" type="car_diesel"/>
	<vehicle id="Munich City-Munich County70" type="car_diesel"/>
	<vehicle id="Munich City-Munich County71" type="car_diesel"/>
	<vehicle id="Munich City-Munich County72" type="car_diesel"/>
	<vehicle id="Munich City-Munich County73" type="car_diesel"/>
	<vehicle id="Munich City-Munich County74" type="car_diesel"/>
	<vehicle id="Munich City-Munich County75" type="car_diesel"/>
	<vehicle id="Munich City-Munich County76" type="car_diesel"/>
	<vehicle id="Munich City-Munich County77" type="car_diesel"/>
	<vehicle id="Munich City-Munich County78" type="car_diesel"/>
	<vehicle id="Munich City-Munich County79" type="car_diesel"/>
	<vehicle id="Munich City-Munich County80" type="car_diesel"/>
	<vehicle id="Munich City-Munich County81" type="car_diesel"/>
	<vehicle id="Munich City-Munich County82" type="car_diesel"/>
	<vehicle id="Munich City-Munich County83" type="car_diesel"/>
	<vehicle id="Munich City-Munich County84" type="car_diesel"/>
	<vehicle id="Munich City-Munich County85" type="car_diesel"/>
	<vehicle id="Munich City-Munich County86" type="car_diesel"/>
	<vehicle id="Munich City-Munich County87" type="car_diesel"/>
	<vehicle id="Munich City-Munich County88" type="car_diesel"/>
	<vehicle id="Munich City-Munich County89" type="car_diesel"/>
	<vehicle id="Munich City-Munich County90" type="car_diesel"/>
	<vehicle id="Munich City-Munich County91" type="car_diesel"/>
	<vehicle id="Munich City-Munich County92" type="car_diesel"/>
	<vehicle id="Munich City-Munich County93" type="car_diesel"/>
	<vehicle id="Munich City-Munich County94" type="car_diesel"/>
	<vehicle id="Munich City-Munich County95" type="car_diesel"/>
	<vehicle id="Munich City-Munich County96" type="car_diesel"/>
	<vehicle id="Munich City-Munich County97" type="car_diesel"/>
	<vehicle id="Munich City-Munich County98" type="car_diesel"/>
	<vehicle id="Munich City-Munich County99" type="car_diesel"/>
	<vehicle id="Munich City-Munich County100" type="car_diesel"/>
	<vehicle id="Munich City-Munich County101" type="car_diesel"/>
	<vehicle id="Munich City-Munich County102" type="car_diesel"/>
	<vehicle id="Munich City-Munich County103" type="car_diesel"/>
	<vehicle id="Munich City-Munich County104" type="car_diesel"/>
	<vehicle id="Munich City-Munich County105" type="car_diesel"/>
	<vehicle id="Munich City-Munich County106" type="car_diesel"/>
	<vehicle id="Munich City-Munich County107" type="car_diesel"/>
	<vehicle id="Munich City-Munich County108" type="car_diesel"/>
	<vehicle id="Munich City-Munich County109" type="car_diesel"/>
	<vehicle id="Munich City-Munich County110" type="car_diesel"/>
	<vehicle id="Munich City-Munich County111" type="car_diesel"/>